Version 4
SHEET 1 1096 680
WIRE -192 -128 -224 -128
WIRE 48 -128 -128 -128
WIRE 80 -128 48 -128
WIRE 192 -128 160 -128
WIRE 848 -80 720 -80
WIRE 880 -80 848 -80
WIRE 720 -64 720 -80
WIRE 512 -48 432 -48
WIRE 656 -48 576 -48
WIRE 48 -32 48 -128
WIRE 48 -32 16 -32
WIRE -224 -16 -224 -128
WIRE -224 -16 -752 -16
WIRE -48 -16 -224 -16
WIRE -816 0 -848 0
WIRE 48 0 16 0
WIRE -720 16 -752 16
WIRE 848 16 848 -80
WIRE -16 32 -16 16
WIRE 720 32 720 16
WIRE -720 48 -720 16
WIRE -688 48 -720 48
WIRE 432 48 432 -48
WIRE 464 48 432 48
WIRE 544 48 528 48
WIRE 656 48 656 -48
WIRE 656 48 624 48
WIRE 48 64 48 0
WIRE 48 64 -80 64
WIRE 160 64 160 48
WIRE 160 64 48 64
WIRE 160 80 160 64
WIRE 720 112 720 96
WIRE 848 112 848 96
WIRE 848 112 720 112
WIRE -560 128 -560 112
WIRE -464 128 -464 112
WIRE 656 144 656 48
WIRE 656 144 560 144
WIRE 848 144 848 112
WIRE 848 144 656 144
WIRE 432 160 432 48
WIRE 432 160 400 160
WIRE 496 160 432 160
WIRE 592 176 560 176
WIRE -80 192 -80 64
WIRE -48 192 -80 192
WIRE 848 192 848 144
WIRE 192 208 192 -128
WIRE 192 208 16 208
WIRE 528 208 528 192
WIRE -560 224 -560 208
WIRE -464 224 -464 208
WIRE -368 224 -368 208
WIRE -48 224 -80 224
WIRE 592 224 592 176
WIRE -16 256 -16 240
WIRE 480 272 400 272
WIRE 592 272 592 224
WIRE 592 272 560 272
WIRE 624 272 592 272
WIRE 736 272 704 272
WIRE 736 304 736 272
WIRE 848 304 848 272
WIRE -224 320 -224 -16
WIRE -192 320 -224 320
WIRE -80 320 -80 224
WIRE -80 320 -112 320
WIRE 80 320 -80 320
WIRE 192 320 192 208
WIRE 192 320 160 320
FLAG 848 304 0
FLAG 400 160 V_E
FLAG 880 -80 VOUT
IOPIN 880 -80 In
FLAG 528 208 0
FLAG -16 -48 VCC
FLAG -16 176 VCC
FLAG 160 -32 VCC
FLAG 160 160 0
FLAG -16 32 0
FLAG -16 256 0
FLAG -848 0 G_CTRL
FLAG -784 -32 VCC
FLAG -784 32 0
FLAG 528 128 VCC
FLAG 736 304 0
FLAG -688 48 V_E
FLAG 400 272 VIN
IOPIN 400 272 In
FLAG 592 224 V_REF
FLAG -464 112 VCC
FLAG -464 224 0
FLAG -560 112 VIN
IOPIN -560 112 In
FLAG -560 224 0
FLAG -368 224 0
FLAG -368 128 VOUT
IOPIN -368 128 In
SYMBOL OpAmps\\UniversalOpAmp2 528 160 M0
SYMATTR InstName U1
SYMBOL OpAmps\\UniversalOpAmp2 -784 0 M0
SYMATTR InstName U2
SYMBOL OpAmps\\UniversalOpAmp2 -16 -16 M0
SYMATTR InstName U3
SYMBOL OpAmps\\UniversalOpAmp2 -16 208 R0
SYMATTR InstName U4
SYMBOL res 832 0 R0
WINDOW 3 36 76 Left 1
SYMATTR Value {R_DIV1}
SYMATTR InstName R1
SYMBOL res 832 176 R0
WINDOW 3 36 76 Left 1
SYMATTR Value {R_DIV2}
SYMATTR InstName R2
SYMBOL res 704 -80 R0
WINDOW 3 36 76 Left 1
SYMATTR Value {R_ZI}
SYMATTR InstName R3
SYMBOL cap 704 32 R0
WINDOW 3 24 56 Left 1
SYMATTR Value {C_ZI}
SYMATTR InstName C1
SYMBOL res 640 32 R90
WINDOW 0 0 56 VBottom 2
WINDOW 3 32 56 VTop 1
SYMATTR InstName R4
SYMATTR Value {R_ZF}
SYMBOL cap 528 32 R90
WINDOW 0 0 32 VBottom 2
WINDOW 3 32 32 VTop 1
SYMATTR InstName C2
SYMATTR Value {C_ZF1}
SYMBOL cap 576 -64 R90
WINDOW 0 -1 32 VBottom 2
WINDOW 3 32 32 VTop 1
SYMATTR InstName C3
SYMATTR Value {C_ZF2}
SYMBOL res 576 256 R90
WINDOW 0 0 56 VBottom 2
WINDOW 3 32 56 VTop 1
SYMATTR InstName R5
SYMATTR Value {R_REF1}
SYMBOL res 720 256 R90
WINDOW 0 0 56 VBottom 2
WINDOW 3 32 56 VTop 1
SYMATTR InstName R6
SYMATTR Value {R_REF2}
SYMBOL res -208 304 M90
WINDOW 0 0 56 VBottom 2
WINDOW 3 32 56 VTop 1
SYMATTR InstName R7
SYMATTR Value {R_1OS}
SYMBOL res 64 304 M90
WINDOW 0 0 56 VBottom 2
WINDOW 3 32 56 VTop 1
SYMATTR InstName R8
SYMATTR Value {R_FOS}
SYMBOL res 64 -144 M90
WINDOW 0 0 56 VBottom 2
WINDOW 3 32 56 VTop 1
SYMATTR InstName R9
SYMATTR Value {R_OSC}
SYMBOL cap -192 -144 M90
WINDOW 0 0 32 VBottom 2
WINDOW 3 32 32 VTop 1
SYMATTR InstName C4
SYMATTR Value {C_OSC}
SYMBOL res 176 -48 M0
WINDOW 3 36 76 Left 1
SYMATTR Value {R_DIVREF1}
SYMATTR InstName R10
SYMBOL res 176 64 M0
WINDOW 3 36 76 Left 1
SYMATTR Value {R_DIVREF2}
SYMATTR InstName R11
SYMBOL voltage -464 112 R0
SYMATTR InstName V1
SYMATTR Value 5
SYMBOL voltage -560 112 R0
WINDOW 3 24 96 Left 1
SYMATTR Value {V_IN}
SYMATTR InstName V2
SYMBOL voltage -368 112 R0
SYMATTR InstName V3
SYMATTR Value ac 1
TEXT -8 -200 Center 2 ;TRIANGLE WAVE GEN.
TEXT 632 -200 Center 2 ;ERROR AMPLIFIER
TEXT 248 -352 Right 2 !.inc close-loop.txt
TEXT 96 -328 Left 2 ;.tran 10m uic
TEXT 96 -296 Left 2 !.ac dec 1024 1 100Meg
