Version 4
SHEET 1 1020 680
WIRE 96 -128 64 -128
WIRE 224 -128 96 -128
WIRE 320 -128 224 -128
WIRE 400 -128 320 -128
WIRE 96 -96 96 -128
WIRE 224 -96 224 -128
WIRE 320 -96 320 -128
WIRE 96 0 96 -16
WIRE 224 0 224 -32
WIRE 320 0 320 -32
WIRE 400 0 400 -128
WIRE 112 80 96 80
WIRE 208 80 112 80
WIRE 352 80 288 80
WIRE 400 128 400 96
WIRE 432 128 400 128
WIRE 544 128 512 128
WIRE 640 128 544 128
WIRE 736 128 640 128
WIRE 864 128 736 128
WIRE 896 128 864 128
WIRE 96 160 96 80
WIRE 400 160 400 128
WIRE 544 160 544 128
WIRE 640 160 640 128
WIRE 736 160 736 128
WIRE 864 160 864 128
WIRE 96 272 96 240
WIRE 400 272 400 224
WIRE 400 272 96 272
WIRE 544 272 544 224
WIRE 544 272 400 272
WIRE 640 272 640 224
WIRE 640 272 544 272
WIRE 736 272 736 224
WIRE 736 272 640 272
WIRE 864 272 864 240
WIRE 864 272 736 272
WIRE 96 304 96 272
FLAG 224 0 0
FLAG 320 0 0
FLAG 96 0 0
FLAG 64 -128 VIN
IOPIN 64 -128 In
FLAG 896 128 VOUT
IOPIN 896 128 Out
FLAG 96 304 0
FLAG 112 80 VG
SYMBOL nmos 352 0 R0
SYMATTR InstName M1
SYMATTR Value AON6312
SYMBOL ind 416 144 R270
WINDOW 0 32 56 VTop 2
WINDOW 3 5 56 VBottom 1
SYMATTR InstName L1
SYMATTR Value {L}
SYMBOL cap 208 -96 R0
WINDOW 3 24 56 Left 1
SYMATTR InstName C1
SYMATTR Value {C_IN1}
SYMBOL cap 304 -96 R0
WINDOW 3 24 56 Left 1
SYMATTR InstName C2
SYMATTR Value {C_IN2}
SYMBOL cap 528 160 R0
WINDOW 3 24 56 Left 1
SYMATTR InstName C3
SYMATTR Value {C_OUT}
SYMBOL cap 624 160 R0
WINDOW 3 24 56 Left 1
SYMATTR InstName C4
SYMATTR Value {C_OUT}
SYMBOL cap 720 160 R0
WINDOW 3 24 56 Left 1
SYMATTR InstName C5
SYMATTR Value {C_OUT}
SYMBOL res 848 144 R0
WINDOW 3 36 76 Left 1
SYMATTR InstName R1
SYMATTR Value {R_L}
SYMBOL voltage 96 -112 R0
WINDOW 3 24 96 Left 1
SYMATTR InstName V1
SYMATTR Value {V_IN}
SYMBOL res 304 64 R90
WINDOW 0 0 56 VBottom 2
WINDOW 3 32 56 VTop 1
SYMATTR InstName R2
SYMATTR Value {R_G}
SYMBOL voltage 96 144 R0
WINDOW 3 9 144 Left 1
WINDOW 123 0 0 Left 0
WINDOW 39 0 0 Left 0
SYMATTR InstName V2
SYMATTR Value PULSE(0 24 0 1n 1n {t_ON} {1/{f_S}} 1000)
SYMBOL schottky 416 224 R180
WINDOW 0 24 64 Left 2
WINDOW 3 24 0 Left 2
SYMATTR InstName D1
SYMATTR Value B560C
TEXT 0 -184 Left 2 !.inc open-loop.txt
TEXT 0 -208 Left 2 !.tran 5m
